
640
B 0.36025 0.854514 0.579162
B 0.737709 0.85557 0.426737
B 0.243028 0.57313 0.0860986
B 0.0847384 0.857648 0.0254473
B 0.854152 0.842456 0.962447
B 0.626794 0.497333 0.8748
B 0.0274035 0.932549 0.924731
B 0.356134 0.895905 0.038631
B 0.655797 0.433431 0.267014
B 0.751674 0.843889 0.0925123
B 0.486331 0.884924 0.640806
B 0.207489 0.858724 0.477782
B 0.849043 0.599922 0.552814
B 0.901623 0.388528 0.652133
B 0.758843 0.193764 0.441146
B 0.50398 0.961894 0.0927846
B 0.756642 0.164518 0.147821
B 0.367943 0.0569532 0.411237
B 0.959571 0.256145 0.815858
B 0.195253 0.690381 0.575468
B 0.182121 0.704162 0.202073
B 0.849709 0.66498 0.0364951
B 0.253272 0.40635 0.916977
B 0.555295 0.449398 0.797311
B 0.0729252 0.40919 0.45343
B 0.819381 0.0288084 0.897382
B 0.00858365 0.085648 0.780854
B 0.571859 0.551745 0.443125
B 0.24479 0.0937961 0.119526
B 0.32411 0.703624 0.85195
B 0.525436 0.0130449 0.25209
B 0.470429 0.743924 0.815023
B 0.887355 0.835632 0.0965156
B 0.616458 0.703971 0.500231
B 0.02793 0.0633841 0.0496053
B 0.596803 0.399912 0.808435
B 0.884934 0.947813 0.448274
B 0.186019 0.0824927 0.677529
B 0.550027 0.394102 0.613919
B 0.67687 0.794747 0.161684
B 0.507702 0.243669 0.0382502
B 0.92872 0.643695 0.925773
B 0.199781 0.851866 0.490608
B 0.229177 0.390054 0.670779
B 0.465384 0.101779 0.977696
B 0.492795 0.187122 0.0891143
B 0.112904 0.0236432 0.824348
B 0.579651 0.934698 0.431696
B 0.360187 0.356995 0.835688
B 0.600758 0.710005 0.999714
B 0.351636 0.708932 0.581473
B 0.26923 0.00438625 0.535405
B 0.154998 0.884698 0.634625
B 0.108495 0.762606 0.967904
B 0.582768 0.613 0.891403
B 0.452077 0.707388 0.380018
B 0.79789 0.184921 0.00555511
B 0.140659 0.309001 0.780968
B 0.701395 0.77432 0.13798
B 0.249209 0.986881 0.685419
B 0.760203 0.75652 0.325939
B 0.173051 0.780404 0.507126
B 0.635975 0.518744 0.364193
B 0.591399 0.805595 0.876054
B 0.0829175 0.447372 0.642884
B 0.926151 0.654841 0.253071
B 0.466323 0.50133 0.136142
B 0.294495 0.541488 0.13667
B 0.948763 0.814726 0.991438
B 0.320304 0.603269 0.338744
B 0.159554 0.873736 0.186599
B 0.445328 0.924743 0.714929
B 0.654326 0.292245 0.75346
B 0.124619 0.614423 0.132952
B 0.739188 0.567423 0.102092
B 0.41926 0.561141 0.937283
B 0.730261 0.270687 0.73074
B 0.832987 0.264681 0.0856441
B 0.468629 0.673957 0.691049
B 0.330322 0.504344 0.585092
B 0.415926 0.113308 0.99827
B 0.41791 0.510179 0.642101
B 0.680385 0.543865 0.869833
B 0.557744 0.93319 0.333874
B 0.53919 0.37244 0.591555
B 0.0643289 0.73091 0.622373
B 0.604325 0.422041 0.308268
B 0.371404 0.967954 0.648379
B 0.368872 0.699701 0.00620115
B 0.561317 0.794525 0.984609
B 0.939079 0.64458 0.300782
B 0.0629448 0.213951 0.0306226
B 0.21678 0.970266 0.04912
B 0.441322 0.284349 0.398756
B 0.826884 0.89035 0.472226
B 0.395742 0.178674 0.689676
B 0.473546 0.214682 0.0879355
B 0.0883503 0.76439 0.769746
B 0.299448 0.00816424 0.821799
B 0.428907 0.180879 0.315227
B 0.60662 0.984921 0.367647
B 0.193779 0.656027 0.345772
B 0.486075 0.122082 0.0715636
B 0.708585 0.402389 0.638004
B 0.153523 0.611622 0.0795543
B 0.0988934 0.457888 0.703594
B 0.849851 0.194543 0.369786
B 0.610979 0.955458 0.217347
B 0.366812 0.44561 0.914587
B 0.626167 0.243198 0.141868
B 0.237141 0.938332 0.639613
B 0.970131 0.114899 0.44938
B 0.35152 0.049355 0.158574
B 0.0380587 0.567578 0.554987
B 0.493221 0.899056 0.53116
B 0.530295 0.543212 0.100516
B 0.957875 0.51577 0.0970942
B 0.265816 0.674677 0.970394
B 0.0753895 0.962186 0.284688
B 0.775713 0.501788 0.87399
B 0.513025 0.666832 0.808178
B 0.68654 0.615875 0.675371
B 0.35631 0.301776 0.333443
B 0.154447 0.759306 0.16759
B 0.590774 0.0194289 0.907476
B 0.581421 0.132093 0.345181
B 0.88618 0.507834 0.140644
B 0.0192486 0.48132 0.506208
B 0.307868 0.718642 0.657142
B 0.240479 0.768079 0.220382
B 0.613346 0.978679 0.283924
B 0.945662 0.599042 0.282652
B 0.213431 0.419425 0.10056
B 0.169905 0.199484 0.121286
B 0.14943 0.613362 0.86477
B 0.691142 0.530862 0.735717
B 0.303347 0.558302 0.693479
B 0.359849 0.507117 0.682867
B 0.416472 0.903797 0.856749
B 0.46103 0.172107 0.278909
B 0.376732 0.980967 0.780769
B 0.357507 0.596694 0.441714
B 0.0989079 0.0202871 0.425916
B 0.426911 0.516248 0.781463
B 0.174544 0.28533 0.339074
B 0.409077 0.961457 0.402706
B 0.0208276 0.767798 0.705049
B 0.476203 0.347763 0.532449
B 0.0525268 0.979997 0.650337
B 0.0526141 0.953731 0.0985124
B 0.0164593 0.021084 0.110296
B 0.881568 0.111221 0.897396
B 0.378347 0.044958 0.0805887
B 0.802105 0.963811 0.368226
B 0.80638 0.628458 0.418619
B 0.184646 0.25524 0.0358376
B 0.176282 0.285565 0.362495
B 0.423165 0.803829 0.607853
B 0.439938 0.807832 0.32577
B 0.857356 0.25053 0.0899496
B 0.527201 0.985953 0.778675
B 0.396314 0.923116 0.867178
B 0.731641 0.792293 0.660366
B 0.798965 0.749402 0.503384
B 0.856024 0.458864 0.334564
B 0.550582 0.212151 0.213825
B 0.881008 0.26081 0.407433
B 0.0586812 0.385443 0.281899
B 0.976981 0.742354 0.423051
B 0.255731 0.315911 0.382113
B 0.806149 0.804143 0.996202
B 0.24898 0.886335 0.181512
B 0.826863 0.668839 0.00579229
B 0.635025 0.915104 0.0443917
B 0.185111 0.0152585 0.218199
B 0.388185 0.104391 0.79575
B 0.390423 0.00904607 0.965246
B 0.823624 0.0456104 0.555722
B 0.439105 0.492804 0.683235
B 0.633116 0.356827 0.0230183
B 0.836888 0.225236 0.87341
B 0.59337 0.522009 0.745558
B 0.92077 0.1377 0.897606
B 0.831626 0.944157 0.312025
B 0.253385 0.328936 0.943809
B 0.608116 0.0793258 0.0760551
B 0.0108206 0.185841 0.100076
B 0.63538 0.697776 0.71309
B 0.225358 0.374686 0.707734
B 0.00166457 0.226341 0.116028
B 0.159043 0.830124 0.64042
B 0.206834 0.948455 0.0837761
B 0.505758 0.601097 0.91858
B 0.891639 0.651741 0.949751
B 0.721623 0.465484 0.390753
B 0.269572 0.942388 0.707839
B 0.998118 0.19391 0.13332
B 0.287913 0.58805 0.554725
B 0.696321 0.261004 0.883651
B 0.373237 0.730962 0.158406
B 0.6022 0.0546115 0.251083
B 0.726037 0.9242 0.843285
B 0.699638 0.19008 0.250189
B 0.0555706 0.17958 0.962675
B 0.217815 0.94634 0.268015
B 0.878891 0.281448 0.517294
B 0.184789 0.896529 0.746451
B 0.913558 0.46878 0.671331
B 0.439904 0.511917 0.507381
B 0.569866 0.304547 0.977931
B 0.49438 0.95184 0.60438
B 0.069425 0.271359 0.388207
B 0.507973 0.144435 0.33541
B 0.646305 0.254932 0.65527
B 0.764761 0.573595 0.00190344
B 0.808008 0.390038 0.933269
B 0.681454 0.688349 0.717746
B 0.362894 0.669382 0.463539
B 0.447314 0.681667 0.232371
B 0.239666 0.723976 0.275476
B 0.920144 0.7797 0.108579
B 0.482949 0.519306 0.882876
B 0.641731 0.0180181 0.263047
B 0.223887 0.925751 0.0338868
B 0.0603829 0.0411416 0.904232
B 0.61504 0.485279 0.949391
B 0.0135934 0.745631 0.139803
B 0.786655 0.424505 0.980148
B 0.332344 0.745897 0.704106
B 0.168615 0.77072 0.281453
B 0.618363 0.5671 0.437561
B 0.239775 0.771285 0.0292894
B 0.285365 0.291517 0.682776
B 0.212983 0.299171 0.0573076
B 0.910908 0.605224 0.725271
B 0.819948 0.639052 0.0469137
B 0.93462 0.388138 0.625301
B 0.85838 0.262271 0.510309
B 0.877768 0.505068 0.846324
B 0.113524 0.646681 0.469304
B 0.156055 0.197592 0.360684
B 0.117365 0.260438 0.242866
B 0.991903 0.934775 0.480905
B 0.820588 0.322129 0.690702
B 0.214104 0.361565 0.0521337
B 0.542467 0.765042 0.245337
B 0.319328 0.663117 0.710664
B 0.587079 0.557841 0.0527303
B 0.469401 0.453687 0.783383
B 0.93702 0.248433 0.504973
B 0.975884 0.00447839 0.13756
B 0.0408722 0.408787 0.130387
B 0.177045 0.578017 0.192795
B 0.687254 0.104884 0.112996
B 0.47191 0.772643 0.991425
B 0.698661 0.841956 0.574711
B 0.229814 0.733204 0.236072
B 0.523873 0.808993 0.732215
B 0.633508 0.146264 0.802664
B 0.753577 0.351938 0.693548
B 0.339296 0.957583 0.0479278
B 0.9711 0.625499 0.627342
B 0.451747 0.490973 0.810031
B 0.64417 0.23082 0.0501128
B 0.579942 0.877624 0.976411
B 0.233132 0.452184 0.436335
B 0.694967 0.222277 0.745246
B 0.775784 0.726841 0.877433
B 0.279415 0.984134 0.193459
B 0.576487 0.0113791 0.771538
B 0.593371 0.0432737 0.897576
B 0.39467 0.584569 0.960259
B 0.740799 0.0632495 0.463649
B 0.338113 0.930852 0.178809
B 0.647625 0.212026 0.057841
B 0.779358 0.253082 0.661619
B 0.279981 0.689963 0.161583
B 0.891625 0.205927 0.0928387
B 0.261848 0.0424963 0.702512
B 0.0356337 0.836106 0.977615
B 0.09089 0.450173 0.0576002
B 0.277544 0.90573 0.145971
B 0.703365 0.324296 0.468936
B 0.580795 0.0814164 0.321985
B 0.782923 0.664303 0.691848
B 0.709963 0.680591 0.501332
B 0.953252 0.261142 0.940856
B 0.146151 0.0428996 0.273972
B 0.323485 0.334572 0.887626
B 0.94538 0.907698 0.0712346
B 0.548887 0.423718 0.0922857
B 0.877574 0.658684 0.793438
B 0.053614 0.994069 0.535416
B 0.0951988 0.0500918 0.377744
B 0.107632 0.934271 0.494876
B 0.982597 0.268065 0.612428
B 0.399564 0.185763 0.737307
B 0.109171 0.731464 0.0399131
B 0.0439773 0.0394103 0.880905
B 0.76631 0.918561 0.270459
B 0.586159 0.7023 0.625456
B 0.00219314 0.986847 0.104414
B 0.094908 0.572624 0.657053
B 0.771293 0.306556 0.861917
B 0.760975 0.153546 0.154721
B 0.262729 0.337268 0.642804
B 0.803251 0.794419 0.00371866
B 0.839915 0.949244 0.219878
B 0.388774 0.25083 0.275252
B 0.510833 0.56443 0.736097
B 0.588995 0.257847 0.775703
B 0.048489 0.0349965 0.35529
B 0.98423 0.679256 0.581279
B 0.782339 0.998404 0.469094
B 0.586158 0.7597 0.281798
B 0.716649 0.661238 0.309374
B 0.363333 0.0183943 0.633018
B 0.140203 0.555445 0.223504
B 0.019087 0.978778 0.386919
B 0.713525 0.395151 0.637902
B 0.739853 0.735485 0.0938042
B 0.162959 0.812174 0.0473226
B 0.62802 0.995189 0.208822
B 0.503346 0.319217 0.92808
B 0.537098 0.353884 0.908508
B 0.164554 0.823413 0.392576
B 0.979418 0.748365 0.914608
B 0.282325 0.721184 0.623408
B 0.575612 0.954849 0.375068
B 0.361851 0.790577 0.0550568
B 0.471648 0.393049 0.93682
B 0.938259 0.111519 0.99224
B 0.91738 0.836669 0.891417
B 0.150396 0.781309 0.766236
B 0.389951 0.0152326 0.986196
B 0.743422 0.289845 0.98693
B 0.663934 0.487221 0.767234
B 0.871812 0.564372 0.923587
B 0.504582 0.884454 0.933487
B 0.795909 0.209148 0.589238
B 0.221262 0.751891 0.00519621
B 0.0756427 0.941134 0.292928
B 0.83033 0.252075 0.346142
B 0.42748 0.610388 0.782995
B 0.244719 0.847752 0.720689
B 0.08462 0.270332 0.863367
B 0.271261 0.111322 0.811256
B 0.566958 0.0132316 0.71742
B 0.682782 0.508369 0.582286
B 0.377097 0.849405 0.117533
B 0.818054 0.564946 0.252738
B 0.403842 0.0774878 0.776621
B 0.0542574 0.284562 0.627481
B 0.787595 0.446347 0.829094
B 0.712438 0.798206 0.091066
B 0.450544 0.505682 0.926968
B 0.558854 0.790213 0.207905
B 0.101658 0.192717 0.695283
B 0.869231 0.72321 0.115723
B 0.113919 0.185609 0.820637
B 0.559338 0.305362 0.924107
B 0.262081 0.732687 0.0302243
B 0.78591 0.287068 0.395159
B 0.314707 0.802421 0.0586948
B 0.842951 0.640482 0.859409
B 0.00948819 0.565535 0.808099
B 0.966384 0.159313 0.973079
B 0.241246 0.547226 0.80083
B 0.312665 0.956359 0.462631
B 0.422443 0.870134 0.27341
B 0.443135 0.0189681 0.763463
B 0.492409 0.1618 0.512992
B 0.051984 0.426201 0.166885
B 0.993975 0.31913 0.39531
B 0.562675 0.23069 0.214929
B 0.201864 0.469991 0.202707
B 0.211535 0.244648 0.482152
B 0.747612 0.896787 0.697715
B 0.675586 0.161741 0.457059
B 0.0863516 0.822953 0.560236
B 0.777025 0.728773 0.438005
B 0.543678 0.0560776 0.556989
B 0.475553 0.373081 0.740792
B 0.11619 0.8294 0.229665
B 0.876311 0.736894 0.0643589
B 0.414447 0.575257 0.331686
B 0.302679 0.0915009 0.749917
B 0.855176 0.139628 0.126841
B 0.982468 0.642289 0.126313
B 0.175553 0.699007 0.628202
B 0.965192 0.705117 0.483508
B 0.694846 0.423679 0.622053
B 0.768511 0.852471 0.727455
B 0.0431731 0.930593 0.363203
B 0.349868 0.0383879 0.816532
B 0.746827 0.53461 0.257724
B 0.800903 0.744496 0.176997
B 0.816595 0.645283 0.856241
B 0.954239 0.168544 0.948982
B 0.135944 0.916588 0.890141
B 0.0404482 0.698307 0.801971
B 0.809857 0.346668 0.0687786
B 0.261041 0.903219 0.898313
B 0.731751 0.828165 0.0663093
B 0.802438 0.131121 0.157832
B 0.00264565 0.321067 0.940444
B 0.725269 0.406532 0.105439
B 0.890133 0.861504 0.581165
B 0.449146 0.465554 0.439994
B 0.369382 0.954863 0.998299
B 0.803558 0.0417853 0.475465
B 0.769273 0.491031 0.437313
B 0.417389 0.374 0.275352
B 0.498452 0.468716 0.515526
B 0.530966 0.294488 0.60925
B 0.00221498 0.156629 0.451674
B 0.976825 0.424789 0.53611
B 0.0645902 0.0538099 0.254448
B 0.357328 0.697288 0.183873
B 0.514911 0.33826 0.0453641
B 0.360216 0.0769396 0.287466
B 0.522186 0.740724 0.574334
B 0.369455 0.343419 0.976392
B 0.684487 0.606312 0.011053
B 0.078596 0.416819 0.483852
B 0.273255 0.0225492 0.542902
B 0.331045 0.738985 0.697877
B 0.744548 0.114825 0.394172
B 0.540261 0.860443 0.953589
B 0.180471 0.631432 0.834786
B 0.713314 0.0953493 0.899491
B 0.816931 0.0574775 0.840643
B 0.72505 0.440247 0.55571
B 0.464255 0.631866 0.100098
B 0.719232 0.436363 0.750064
B 0.433302 0.3272 0.566244
B 0.051301 0.107436 0.0120038
B 0.98655 0.454483 0.158235
B 0.235704 0.123391 0.469933
B 0.203227 0.8428 0.375048
B 0.623258 0.484819 0.777772
B 0.597819 0.819685 0.629761
B 0.302987 0.163242 0.878129
B 0.982589 0.547206 0.202316
B 0.407129 0.646836 0.741559
B 0.444621 0.969494 0.322838
B 0.550666 0.336066 0.59284
B 0.63907 0.993732 0.458236
B 0.184261 0.151175 0.471803
B 0.911911 0.876306 0.997538
B 0.70534 0.18495 0.376565
B 0.238292 0.255234 0.902456
B 0.234304 0.740293 0.95093
B 0.637425 0.375717 0.745518
B 0.67704 0.966061 0.379814
B 0.170561 0.886698 0.956746
B 0.958471 0.832968 0.158111
B 0.887826 0.583864 0.645044
B 0.438894 0.0342981 0.287365
B 0.686115 0.0995059 0.75745
B 0.145918 0.269645 0.743561
B 0.552049 0.723405 0.129901
B 0.346567 0.898076 0.770137
B 0.335496 0.654677 0.0257951
B 0.382438 0.31643 0.251767
B 0.282785 0.171823 0.490218
B 0.228901 0.428344 0.0891491
B 0.547123 0.2264 0.0793919
B 0.501686 0.89864 0.630022
B 0.520503 0.345417 0.495168
B 0.406642 0.858544 0.0656957
B 0.689161 0.834136 0.281312
B 0.77129 0.575302 0.942783
B 0.555778 0.986402 0.48037
B 0.25923 0.217972 0.0380363
B 0.427107 0.0838868 0.604535
B 0.209817 0.202148 0.501931
B 0.636963 0.682068 0.612019
B 0.416805 0.451945 0.468244
B 0.518762 0.323684 0.131887
B 0.550716 0.305657 0.827606
B 0.795164 0.526748 0.957424
B 0.571645 0.496128 0.87631
B 0.697855 0.815973 0.489281
B 0.645134 0.319631 0.642686
B 0.342717 0.861502 0.537019
B 0.10544 0.0840751 0.0796375
B 0.346947 0.806039 0.869369
B 0.750665 0.35549 0.254775
B 0.382483 0.974282 0.581776
B 0.6506 0.718052 0.856345
B 0.906566 0.0506183 0.311812
B 0.145541 0.596791 0.330158
B 0.542647 0.60586 0.695355
B 0.639296 0.462082 0.166552
B 0.614865 0.32882 0.805311
B 0.780029 0.658057 0.961868
B 0.0966741 0.53404 0.741887
B 0.246248 0.508187 0.727482
B 0.221544 0.536895 0.0272067
B 0.405425 0.930372 0.685133
B 0.633732 0.460302 0.814596
B 0.663315 0.604193 0.800713
B 0.81905 0.752406 0.772682
B 0.467387 0.575794 0.413858
B 0.176373 0.81796 0.151088
B 0.727634 0.74343 0.502456
B 0.227998 0.709248 0.402985
B 0.409757 0.12574 0.236642
B 0.686364 0.987409 0.958318
B 0.79188 0.129023 0.264034
B 0.353908 0.254502 0.688266
B 0.287439 0.703234 0.304774
B 0.0151819 0.129941 0.701289
B 0.716032 0.51122 0.457706
B 0.287154 0.847525 0.88489
B 0.346611 0.51541 0.211496
B 0.723421 0.433786 0.948516
B 0.675006 0.0249811 0.855084
B 0.382918 0.0313028 0.59086
B 0.596133 0.162727 0.955045
B 0.665786 0.861148 0.605172
B 0.42516 0.643476 0.928317
B 0.165101 0.0610147 0.10929
B 0.1985 0.368863 0.810186
B 0.589832 0.458675 0.599487
B 0.924099 0.124733 0.949174
B 0.22665 0.754038 0.633894
B 0.56948 0.255828 0.826178
B 0.173516 0.271402 0.414116
B 0.0305052 0.723703 0.0335634
B 0.724639 0.853057 0.388974
B 0.444389 0.250009 0.704965
B 0.297033 0.816141 0.413435
B 0.061802 0.127811 0.348874
B 0.0145453 0.227417 0.918299
B 0.381955 0.00610014 0.0824354
B 0.948435 0.71865 0.64852
B 0.504252 0.754593 0.512933
B 0.154127 0.519854 0.453172
B 0.50444 0.448356 0.688307
B 0.962014 0.402926 0.709316
B 0.259086 0.226417 0.115131
B 0.699896 0.0529112 0.802426
B 0.969881 0.645666 0.0559215
B 0.917244 0.903357 0.52035
B 0.685317 0.057287 0.365252
B 0.481693 0.102941 0.520521
B 0.228472 0.923429 0.811053
B 0.539784 0.823292 0.571497
B 0.940125 0.195081 0.191203
B 0.983778 0.925024 0.420577
B 0.503564 0.458197 0.616997
B 0.0722963 0.918349 0.564652
B 0.905749 0.450942 0.964936
B 0.991372 0.0493262 0.425279
B 0.866836 0.859224 0.479473
B 0.470937 0.580204 0.513575
B 0.371615 0.204297 0.222468
B 0.233719 0.482634 0.58013
B 0.438992 0.595135 0.816208
B 0.254717 0.836949 0.927444
B 0.265247 0.332591 0.779616
B 0.619613 0.136658 0.00243878
B 0.568834 0.92642 0.829068
B 0.132577 0.17896 0.355261
B 0.108095 0.611394 0.0347034
B 0.116679 0.400198 0.989525
B 0.735737 0.529781 0.746914
B 0.572115 0.233449 0.581794
B 0.634848 0.942294 0.732304
B 0.46629 0.592821 0.266507
B 0.52902 0.694849 0.260343
B 0.591248 0.824869 0.5065
B 0.638449 0.568816 0.261798
B 0.393455 0.635034 0.895307
B 0.51227 0.705505 0.379565
B 0.758597 0.409799 0.862075
B 0.678791 0.85736 0.639001
B 0.203762 0.680194 0.0915598
B 0.44565 0.327161 0.307905
B 0.61058 0.0108479 0.643066
B 0.771166 0.470665 0.610876
B 0.142909 0.447124 0.676188
B 0.0632153 0.669663 0.139074
B 0.0357618 0.201043 0.418305
B 0.610355 0.611991 0.0090494
B 0.410668 0.324384 0.116789
B 0.968259 0.716858 0.0191235
B 0.16424 0.123823 0.641622
B 0.207045 0.0327579 0.218687
B 0.599467 0.976794 0.75553
B 0.785159 0.563922 0.236004
B 0.628096 0.0494145 0.998114
B 0.042975 0.284957 0.820757
B 0.69409 0.645547 0.462091
B 0.292784 0.609862 0.742231
B 0.846374 0.250548 0.619817
B 0.377936 0.169616 0.487631
B 0.796108 0.80334 0.350905
B 0.14841 0.264544 0.220289
B 0.024654 0.573133 0.363328
B 0.162184 0.937962 0.678754
B 0.894357 0.497499 0.542383
B 0.012832 0.968499 0.666112
B 0.557056 0.634005 0.998244
B 0.978734 0.793736 0.693163
B 0.307627 0.0141139 0.0803567
B 0.411722 0.732777 0.90296
B 0.361135 0.110828 0.141312
B 0.526949 0.921159 0.0222457
B 0.691183 0.335624 0.817149
B 0.754671 0.900233 0.61517
B 0.669397 0.720769 0.666146
B 0.687215 0.218124 0.526345
B 0.58522 0.888769 0.289707
B 0.305281 0.245852 0.686863
B 0.922459 0.696161 0.498115
B 0.110714 0.289788 0.784761
B 0.548011 0.919176 0.703341
B 0.0111752 0.880769 0.482546
B 0.557794 0.447748 0.591533
B 0.352455 0.992522 0.576164
B 0.663492 0.34732 0.153735
B 0.404344 0.133193 0.461619
B 0.735646 0.609559 0.201149
B 0.712992 0.897228 0.106194
B 0.143314 0.50686 0.115105
B 0.946436 0.752055 0.283583
B 0.883394 0.343473 0.568924
B 0.437447 0.746899 0.56579
B 0.404769 0.823369 0.136281
B 0.381721 0.440294 0.551068
B 0.536303 0.0651737 0.913518
B 0.61158 0.144768 0.366895
B 0.243315 0.326693 0.172904
B 0.767931 0.0704863 0.128834
B 0.393237 0.164591 0.244198
B 0.725144 0.952691 0.935279
B 0.923149 0.205272 0.270312
