
640
B 0.0183698 0.0750226 0.182986
B 0.0242354 0.458296 0.158589
B 0.356602 0.611738 0.903501
B 0.609527 0.546119 0.372854
B 0.0562627 0.290987 0.869896
B 0.487009 0.0292702 0.0146385
B 0.352448 0.203693 0.598378
B 0.868968 0.785027 0.00818049
B 0.163681 0.562705 0.356282
B 0.527868 0.832219 0.015372
B 0.715388 0.465777 0.484888
B 0.46676 0.948289 0.609393
B 0.889734 0.396221 0.643733
B 0.454129 0.254265 0.672455
B 0.0288695 0.744931 0.832683
B 0.55389 0.617915 0.778266
B 0.538067 0.301569 0.0403287
B 0.171646 0.296234 0.886095
B 0.898707 0.225725 0.331682
B 0.471482 0.282315 0.867188
B 0.971968 0.145997 0.873615
B 0.785631 0.0447548 0.986153
B 0.584983 0.591161 0.858157
B 0.625191 0.386539 0.0955289
B 0.875908 0.0127603 0.0442046
B 0.0246075 0.48835 0.975222
B 0.46708 0.694177 0.682234
B 0.966178 0.878939 0.237768
B 0.800956 0.199628 0.521978
B 0.900852 0.840746 0.433292
B 0.0237787 0.312126 0.662089
B 0.0011612 0.144273 0.0951855
B 0.401589 0.272295 0.152983
B 0.438525 0.912372 0.597082
B 0.207729 0.628154 0.552938
B 0.493114 0.139613 0.190385
B 0.585325 0.31349 0.948195
B 0.478482 0.594133 0.323791
B 0.0291379 0.91826 0.757394
B 0.808684 0.832726 0.223657
B 0.817921 0.765609 0.893838
B 0.734058 0.917603 0.614943
B 0.0219037 0.412758 0.959654
B 0.625446 0.562551 0.420335
B 0.263733 0.81191 0.144487
B 0.574286 0.273545 0.784002
B 0.0904948 0.634225 0.905434
B 0.385828 0.812461 0.268939
B 0.485474 0.759481 0.731867
B 0.771416 0.406311 0.171215
B 0.181035 0.926118 0.633067
B 0.22598 0.707627 0.512817
B 0.00689367 0.728719 0.000538413
B 0.411321 0.564834 0.0573571
B 0.797948 0.909446 0.233642
B 0.914765 0.65116 0.997216
B 0.566922 0.393462 0.332316
B 0.743493 0.350477 0.418127
B 0.720244 0.318159 0.458683
B 0.705188 0.217032 0.894602
B 0.510048 0.999445 0.169528
B 0.278804 0.13632 0.753278
B 0.340511 0.943319 0.426403
B 0.569632 0.272948 0.411427
B 0.595145 0.284565 0.327658
B 0.436701 0.579211 0.0763291
B 0.945749 0.184445 0.259826
B 0.499541 0.349422 0.718618
B 0.927681 0.772586 0.394442
B 0.429831 0.452159 0.466059
B 0.432566 0.183457 0.664682
B 0.885227 0.272807 0.117238
B 0.577095 0.674307 0.0484659
B 0.455671 0.396873 0.360852
B 0.459434 0.46897 0.398469
B 0.234347 0.794876 0.343165
B 0.314928 0.940659 0.158402
B 0.166047 0.950212 0.0692516
B 0.804728 0.0297021 0.955735
B 0.967493 0.368959 0.0953243
B 0.367532 0.926298 0.916311
B 0.502753 0.409303 0.119456
B 0.749415 0.375988 0.993914
B 0.87222 0.816254 0.927813
B 0.921613 0.36766 0.246387
B 0.438943 0.452544 0.968584
B 0.0251819 0.34485 0.428797
B 0.175512 0.603756 0.336131
B 0.637556 0.605426 0.65489
B 0.741678 0.471712 0.927871
B 0.259617 0.611053 0.353282
B 0.578956 0.0096899 0.372168
B 0.63501 0.00933039 0.248096
B 0.2828 0.947199 0.667767
B 0.766242 0.334909 0.0759643
B 0.00728454 0.0101231 0.294212
B 0.322425 0.636294 0.152361
B 0.557024 0.926645 0.37955
B 0.934462 0.405223 0.470471
B 0.0630077 0.1927 0.371516
B 0.286402 0.186076 0.192841
B 0.223446 0.369149 0.166561
B 0.698195 0.917398 0.289563
B 0.117844 0.0357312 0.964011
B 0.961459 0.148901 0.703387
B 0.647054 0.274091 0.894497
B 0.536461 0.00390159 0.181699
B 0.762931 0.113013 0.754945
B 0.424171 0.675632 0.387244
B 0.479768 0.716316 0.969268
B 0.978687 0.845595 0.388105
B 0.688314 0.0610654 0.567406
B 0.839929 0.57368 0.473604
B 0.357265 0.108184 0.0523882
B 0.555059 0.623111 0.765909
B 0.469056 0.824516 0.506955
B 0.512645 0.0435246 0.125138
B 0.291612 0.763352 0.834368
B 0.810753 0.599817 0.132515
B 0.748287 0.860233 0.375571
B 0.308617 0.345839 0.362294
B 0.475422 0.566044 0.729626
B 0.264309 0.291 0.447304
B 0.771341 0.698792 0.952583
B 0.341058 0.724127 0.25646
B 0.0679756 0.781324 0.842273
B 0.766236 0.393722 0.0126285
B 0.531455 0.834798 0.0636852
B 0.0913331 0.22057 0.99075
B 0.366117 0.664255 0.188102
B 0.444966 0.501201 0.394936
B 0.124741 0.131558 0.509009
B 0.721003 0.803561 0.63805
B 0.25355 0.035753 0.898262
B 0.513735 0.574285 0.831021
B 0.515702 0.30114 0.216735
B 0.79397 0.686027 0.314354
B 0.323838 0.747031 0.725404
B 0.463371 0.207169 0.420743
B 0.316628 0.0628437 0.173127
B 0.313374 0.237945 0.244164
B 0.859504 0.418439 0.421398
B 0.251339 0.218528 0.827072
B 0.463919 0.0307551 0.168159
B 0.200766 0.290082 0.345652
B 0.368276 0.837578 0.551825
B 0.794961 0.38295 0.652613
B 0.707664 0.458128 0.524996
B 0.657303 0.366447 0.188133
B 0.496 0.370266 0.697798
B 0.52428 0.848227 0.268709
B 0.540572 0.630636 0.260281
B 0.284256 0.869734 0.683691
B 0.394078 0.970231 0.20897
B 0.694543 0.165843 0.0029927
B 0.798254 0.894661 0.481126
B 0.173755 0.0483423 0.0989781
B 0.479284 0.272698 0.197912
B 0.206313 0.895748 0.092623
B 0.431622 0.207309 0.86647
B 0.164964 0.68861 0.97168
B 0.619459 0.585871 0.0879125
B 0.548447 0.480213 0.266283
B 0.447055 0.363071 0.329424
B 0.085402 0.566741 0.207948
B 0.165307 0.724915 0.0724967
B 0.240948 0.859833 0.795798
B 0.341652 0.0832797 0.109687
B 0.535213 0.348392 0.0504956
B 0.654091 0.79674 0.441768
B 0.495445 0.0192703 0.159663
B 0.436232 0.328891 0.719265
B 0.832091 0.598881 0.12979
B 0.0846638 0.581574 0.0507681
B 0.274858 0.989543 0.372029
B 0.782122 0.128619 0.150568
B 0.308497 0.0440803 0.439864
B 0.226392 0.769154 0.71821
B 0.173828 0.532885 0.572223
B 0.0400479 0.00197503 0.26542
B 0.667668 0.0538655 0.672242
B 0.720265 0.302908 0.0667463
B 0.570619 0.827774 0.646668
B 0.19844 0.533086 0.200387
B 0.471671 0.280854 0.862014
B 0.673822 0.633761 0.061887
B 0.941285 0.534588 0.706205
B 0.809016 0.633845 0.25378
B 0.699118 0.423436 0.0745786
B 0.879473 0.0644112 0.136109
B 0.559604 0.0326244 0.891165
B 0.711098 0.575648 0.0402654
B 0.301809 0.561905 0.824379
B 0.707029 0.212853 0.454831
B 0.62225 0.799656 0.681856
B 0.931307 0.503821 0.609565
B 0.672908 0.479862 0.862195
B 0.566578 0.187591 0.295893
B 0.0882147 0.575598 0.0960191
B 0.567398 0.148445 0.797676
B 0.262867 0.791966 0.798429
B 0.709635 0.452892 0.174899
B 0.764124 0.378751 0.533843
B 0.276218 0.0643702 0.805388
B 0.326148 0.687252 0.00910052
B 0.0593016 0.786298 0.803189
B 0.82178 0.690028 0.746617
B 0.315324 0.461198 0.0447964
B 0.0193955 0.220349 0.270967
B 0.93023 0.767789 0.0579221
B 0.529297 0.297852 0.35237
B 0.561454 0.494416 0.746846
B 0.101596 0.568553 0.323811
B 0.534639 0.0748806 0.266495
B 0.400332 0.811251 0.380955
B 0.219931 0.489737 0.94048
B 0.0953307 0.670168 0.90223
B 0.36155 0.534592 0.448666
B 0.714152 0.655273 0.616089
B 0.0166232 0.656435 0.877439
B 0.475756 0.490266 0.916519
B 0.0747081 0.55495 0.954702
B 0.789094 0.212014 0.61161
B 0.0451316 0.338808 0.138595
B 0.765487 0.567034 0.201906
B 0.884114 0.738149 0.718877
B 0.969238 0.460328 0.526588
B 0.439777 0.168967 0.792447
B 0.0682427 0.890333 0.266564
B 0.212346 0.286754 0.19371
B 0.833901 0.0922188 0.66635
B 0.0200702 0.764467 0.530201
B 0.795691 0.890829 0.529667
B 0.377512 0.234923 0.817579
B 0.0965588 0.285768 0.385682
B 0.661962 0.990769 0.543026
B 0.088292 0.881924 0.789082
B 0.34908 0.659216 0.519468
B 0.317927 0.531558 0.842639
B 0.599308 0.645348 0.575517
B 0.644557 0.628299 0.841098
B 0.972301 0.298526 0.499474
B 0.320426 0.627385 0.756937
B 0.146695 0.566122 0.547098
B 0.530749 0.416805 0.898381
B 0.394682 0.49941 0.108777
B 0.820935 0.956737 0.580824
B 0.509829 0.204783 0.0138618
B 0.705733 0.602053 0.432881
B 0.428918 0.0206739 0.651706
B 0.667599 0.779232 0.32179
B 0.756923 0.202904 0.602754
B 0.859038 0.786691 0.382935
B 0.837863 0.00778384 0.955459
B 0.405932 0.611901 0.139134
B 0.55541 0.267169 0.115714
B 0.104017 0.693128 0.992886
B 0.78727 0.77114 0.507398
B 0.0504236 0.041676 0.978342
B 0.621432 0.945845 0.922697
B 0.706589 0.179484 0.443057
B 0.16178 0.869676 0.299575
B 0.600492 0.951551 0.100685
B 0.720214 0.782217 0.360774
B 0.462058 0.459671 0.531299
B 0.931607 0.268937 0.496313
B 0.323442 0.182066 0.83732
B 0.525865 0.766955 0.374894
B 0.390875 0.289499 0.997163
B 0.0658795 0.976692 0.951123
B 0.301119 0.899636 0.158508
B 0.278457 0.269635 0.489393
B 0.926432 0.983372 0.258185
B 0.560046 0.884305 0.0386264
B 0.479473 0.264071 0.34492
B 0.34038 0.423442 0.224928
B 0.765665 0.606782 0.8362
B 0.347175 0.493268 0.377213
B 0.108925 0.536691 0.809176
B 0.875846 0.724479 0.281937
B 0.582696 0.44812 0.180904
B 0.236549 0.577254 0.737228
B 0.265397 0.251779 0.806189
B 0.676694 0.830488 0.629649
B 0.13729 0.980327 0.898164
B 0.529456 0.524236 0.742991
B 0.203541 0.988784 0.738942
B 0.900974 0.879901 0.171667
B 0.198608 0.471985 0.121527
B 0.735436 0.383266 0.167135
B 0.830887 0.178452 0.0952814
B 0.241616 0.262104 0.929597
B 0.639677 0.363494 0.345801
B 0.407977 0.378494 0.511631
B 0.179517 0.0977219 0.808367
B 0.911171 0.549161 0.891397
B 0.0130001 0.573958 0.99995
B 0.764433 0.580407 0.797507
B 0.575119 0.14736 0.320386
B 0.22239 0.127819 0.429232
B 0.600571 0.307148 0.260432
B 0.60007 0.38186 0.717506
B 0.305661 0.851346 0.632222
B 0.417359 0.0627583 0.792721
B 0.0348858 0.360984 0.592606
B 0.372033 0.614477 0.512406
B 0.126954 0.00340397 0.661315
B 0.501045 0.476302 0.839392
B 0.0378563 0.76701 0.613509
B 0.958684 0.368982 0.629169
B 0.422599 0.545957 0.811044
B 0.966217 0.579201 0.258774
B 0.0331789 0.0687032 0.55974
B 0.908391 0.51996 0.720896
B 0.383377 0.179286 0.516677
B 0.550631 0.749087 0.88549
B 0.500033 0.136458 0.744858
B 0.316251 0.379636 0.215085
B 0.167494 0.239783 0.899014
B 0.185531 0.279411 0.757512
B 0.0819941 0.980857 0.335925
B 0.31621 0.954425 0.165194
B 0.738974 0.978772 0.485276
B 0.515631 0.648371 0.757799
B 0.00889687 0.104463 0.862729
B 0.480339 0.699057 0.61509
B 0.407246 0.237083 0.189935
B 0.27988 0.154925 0.552192
B 0.179803 0.987743 0.499035
B 0.779064 0.0626435 0.247529
B 0.065983 0.412118 0.562793
B 0.222 0.292445 0.0967966
B 0.875123 0.970602 0.0856359
B 0.700435 0.214914 0.704334
B 0.672622 0.116907 0.368874
B 0.378838 0.269014 0.899226
B 0.0827979 0.123139 0.472129
B 0.349311 0.204097 0.0020278
B 0.649979 0.64505 0.260036
B 0.699195 0.110639 0.0668872
B 0.638939 0.425037 0.26961
B 0.966772 0.115318 0.814005
B 0.0156374 0.188674 0.0116103
B 0.148695 0.0075413 0.72081
B 0.0836344 0.342006 0.870717
B 0.116232 0.113665 0.737343
B 0.150474 0.162679 0.142953
B 0.227236 0.176709 0.775906
B 0.338239 0.521113 0.306868
B 0.487509 0.222748 0.744432
B 0.061177 0.218645 0.817378
B 0.181187 0.942818 0.240694
B 0.0262926 0.0678736 0.484636
B 0.757277 0.320165 0.868918
B 0.738775 0.883581 0.557334
B 0.946235 0.895443 0.845681
B 0.725443 0.631652 0.743038
B 0.51962 0.748053 0.371189
B 0.0911788 0.82707 0.332413
B 0.869071 0.508907 0.916192
B 0.37612 0.149142 0.779274
B 0.941233 0.621057 0.546692
B 0.867147 0.686758 0.032548
B 0.684001 0.141818 0.330521
B 0.942118 0.587302 0.439961
B 0.401752 0.95668 0.403619
B 0.785881 0.105138 0.762689
B 0.768374 0.730779 0.188014
B 0.661183 0.81768 0.915131
B 0.0219098 0.104009 0.364724
B 0.643871 0.135517 0.058865
B 0.869253 0.105361 0.415842
B 0.516795 0.946244 0.609717
B 0.153871 0.166049 0.20774
B 0.751484 0.744081 0.283752
B 0.830955 0.762425 0.101721
B 0.0668913 0.0409018 0.617717
B 0.774374 0.617138 0.713598
B 0.528033 0.59733 0.601856
B 0.203623 0.214437 0.408269
B 0.376627 0.439286 0.862918
B 0.368899 0.638488 0.0517684
B 0.187236 0.305663 0.0339145
B 0.368569 0.970452 0.730572
B 0.400394 0.300138 0.781548
B 0.582996 0.719648 0.204675
B 0.0158885 0.46753 0.855068
B 0.165042 0.606022 0.451371
B 0.857493 0.0728664 0.950432
B 0.325625 0.298418 0.672559
B 0.987304 0.193975 0.724115
B 0.180881 0.74991 0.549285
B 0.0446211 0.313461 0.462509
B 0.491577 0.993193 0.0571408
B 0.167402 0.807244 0.338602
B 0.408298 0.666057 0.167816
B 0.459802 0.154705 0.632595
B 0.300036 0.785476 0.695017
B 0.233967 0.412824 0.5136
B 0.94494 0.178034 0.471686
B 0.893852 0.550218 0.902105
B 0.870513 0.161694 0.394483
B 0.217072 0.402229 0.526432
B 0.715413 0.193835 0.0390637
B 0.328759 0.632814 0.58359
B 0.94381 0.15701 0.164119
B 0.4185 0.311247 0.485123
B 0.722407 0.999266 0.172446
B 0.60357 0.557387 0.435123
B 0.144455 0.753467 0.0464284
B 0.12741 0.0393592 0.729233
B 0.329213 0.740928 0.787834
B 0.13799 0.608322 0.431055
B 0.334064 0.573918 0.270417
B 0.8248 0.231498 0.706695
B 0.293369 0.291393 0.56411
B 0.796887 0.13447 0.559015
B 0.0561387 0.0444004 0.695546
B 0.776456 0.681251 0.972192
B 0.277826 0.640965 0.32642
B 0.224412 0.696011 0.942139
B 0.877563 0.543028 0.264991
B 0.32815 0.279611 0.488996
B 0.97186 0.487817 0.895316
B 0.148176 0.25398 0.0887865
B 0.318047 0.744551 0.044638
B 0.522453 0.197093 0.0887316
B 0.666049 0.181178 0.975539
B 0.459916 0.0637406 0.997067
B 0.675427 0.747239 0.568571
B 0.397674 0.337994 0.0383468
B 0.598243 0.224915 0.874593
B 0.511596 0.328696 0.185439
B 0.223271 0.332918 0.111689
B 0.159321 0.37901 0.201231
B 0.871396 0.26992 0.643742
B 0.451851 0.482858 0.339943
B 0.220995 0.171421 0.18209
B 0.345897 0.932694 0.264758
B 0.537409 0.74615 0.506362
B 0.478029 0.974699 0.129049
B 0.850439 0.106276 0.78358
B 0.76585 0.138348 0.17883
B 0.138354 0.826448 0.486527
B 0.239546 0.566453 0.163885
B 0.413842 0.127523 0.70224
B 0.842487 0.654903 0.0328495
B 0.739281 0.326039 0.951722
B 0.92851 0.81081 0.00929035
B 0.904793 0.887843 0.377919
B 0.659493 0.0350449 0.550052
B 0.213736 0.96008 0.237133
B 0.697995 0.560784 0.373722
B 0.82706 0.896665 0.535621
B 0.401607 0.516903 0.640525
B 0.239393 0.377285 0.696344
B 0.305564 0.0703967 0.0267288
B 0.988469 0.940186 0.174264
B 0.592435 0.64579 0.704448
B 0.409231 0.815399 0.917612
B 0.372567 0.587432 0.874372
B 0.962743 0.0389512 0.288866
B 0.963455 0.897099 0.77611
B 0.892367 0.573294 0.62127
B 0.44591 0.880626 0.837486
B 0.187783 0.944148 0.681671
B 0.47312 0.722971 0.0426583
B 0.814119 0.738515 0.99911
B 0.450021 0.109694 0.456643
B 0.872252 0.973506 0.789681
B 0.820458 0.596929 0.639223
B 0.639895 0.45605 0.229626
B 0.90884 0.987081 0.331854
B 0.303757 0.941709 0.80893
B 0.260646 0.636449 0.0282216
B 0.311833 0.166433 0.284399
B 0.0213328 0.616497 0.794583
B 0.00314913 0.201764 0.764998
B 0.987195 0.994363 0.313963
B 0.217356 0.605705 0.283266
B 0.794137 0.468274 0.414225
B 0.834411 0.895601 0.0969919
B 0.262486 0.22397 0.857179
B 0.578413 0.357442 0.833561
B 0.710736 0.0805458 0.729657
B 0.46383 0.536278 0.867504
B 0.680537 0.334364 0.85509
B 0.899527 0.523478 0.448057
B 0.071716 0.594921 0.747187
B 0.943261 0.992089 0.760019
B 0.867719 0.9036 0.692941
B 0.35911 0.764963 0.145302
B 0.133135 0.654665 0.396879
B 0.0696913 0.905329 0.500588
B 0.862606 0.846104 0.888677
B 0.675829 0.923395 0.235004
B 0.44224 0.442972 0.036906
B 0.118222 0.00575291 0.462159
B 0.768477 0.722808 0.114093
B 0.0312671 0.51065 0.541758
B 0.498443 0.321284 0.846681
B 0.551321 0.730381 0.744289
B 0.804037 0.619886 0.83828
B 0.129396 0.141077 0.556661
B 0.7138 0.167212 0.269926
B 0.038596 0.956206 0.531543
B 0.961575 0.93391 0.591767
B 0.767302 0.0345865 0.283728
B 0.00661984 0.804707 0.633692
B 0.165508 0.518922 0.63111
B 0.348667 0.0136339 0.16601
B 0.271754 0.849247 0.594206
B 0.614296 0.983872 0.363259
B 0.325027 0.916598 0.681179
B 0.280284 0.694344 0.450887
B 0.511016 0.591252 0.366142
B 0.471128 0.994324 0.379704
B 0.65399 0.179509 0.060613
B 0.00316462 0.789495 0.264942
B 0.656204 0.21983 0.390338
B 0.86249 0.896031 0.960171
B 0.34831 0.18235 0.268334
B 0.882986 0.592798 0.876049
B 0.473619 0.8195 0.210151
B 0.871208 0.409123 0.573012
B 0.0427235 0.648808 0.775494
B 0.13622 0.205479 0.855136
B 0.258035 0.0914386 0.646573
B 0.192768 0.0246952 0.593298
B 0.117634 0.0759918 0.679645
B 0.020935 0.898497 0.0979999
B 0.94277 0.143102 0.578608
B 0.264827 0.859831 0.839933
B 0.166011 0.722231 0.0493715
B 0.451834 0.905266 0.920095
B 0.868483 0.58875 0.610807
B 0.869468 0.0812852 0.144762
B 0.457361 0.450058 0.578632
B 0.521625 0.721001 0.940601
B 0.878607 0.255501 0.995781
B 0.694362 0.434776 0.6167
B 0.0352426 0.500216 0.0578238
B 0.499846 0.661186 0.373813
B 0.101905 0.99673 0.691921
B 0.0362138 0.0338779 0.459688
B 0.213618 0.45493 0.495427
B 0.757261 0.651644 0.420889
B 0.0451552 0.408214 0.750001
B 0.385998 0.248994 0.561051
B 0.251052 0.601512 0.31923
B 0.304247 0.831077 0.770657
B 0.561896 0.51784 0.532998
B 0.0239779 0.379883 0.115065
B 0.107999 0.362104 0.575485
B 0.419592 0.935295 0.0762685
B 0.29364 0.656917 0.199566
B 0.68154 0.0533672 0.172723
B 0.580561 0.252803 0.100781
B 0.225931 0.789099 0.461106
B 0.252145 0.834318 0.713137
B 0.488723 0.641949 0.710106
B 0.075372 0.175773 0.234649
B 0.192875 0.792407 0.143067
B 0.076187 0.622543 0.587542
B 0.747769 0.801526 0.940695
B 0.588002 0.540768 0.287548
B 0.931461 0.583796 0.655969
B 0.951605 0.160313 0.0301262
B 0.965239 0.751746 0.627319
B 0.486277 0.426736 0.992428
B 0.405995 0.176349 0.629649
B 0.324025 0.696817 0.90023
B 0.183679 0.617007 0.902396
B 0.817328 0.508202 0.908794
B 0.813002 0.663564 0.890037
B 0.00108163 0.700117 0.442173
B 0.108395 0.877854 0.0152142
B 0.56163 0.922519 0.873436
B 0.952767 0.00981952 0.714953
B 0.473726 0.962453 0.47691
B 0.18987 0.291602 0.786243
B 0.479547 0.390051 0.30575
B 0.397023 0.690382 0.373145
B 0.769652 0.128895 0.216653
B 0.546338 0.989374 0.764121
B 0.538402 0.326252 0.478914
B 0.196211 0.796679 0.759785
B 0.66819 0.407825 0.0950693
B 0.977057 0.478081 0.913737
B 0.895368 0.118246 0.808869
B 0.190438 0.237052 0.682491
B 0.984348 0.881308 0.647282
B 0.892227 0.0259401 0.48581
B 0.739706 0.254204 0.135892
B 0.218108 0.451811 0.543377
B 0.996 0.294226 0.115687
B 0.572131 0.116453 0.761002
B 0.0853172 0.275963 0.770105
B 0.0427823 0.531382 0.184612
B 0.115337 0.671073 0.858362
B 0.0519411 0.967689 0.965652
B 0.64116 0.118012 0.430957
B 0.639379 0.231675 0.131688
B 0.0634048 0.780913 0.977232
B 0.13037 0.352628 0.522011
B 0.884888 0.952459 0.867063
B 0.451647 0.37264 0.478715
B 0.111369 0.770991 0.715734
B 0.524735 0.365337 0.232776
B 0.307656 0.192549 0.928782
B 0.319854 0.782009 0.046587
B 0.217655 0.12896 0.874898
B 0.281359 0.271848 0.176893
B 0.791329 0.438875 0.76089
B 0.305952 0.90128 0.0251726
B 0.97655 0.158125 0.708766
B 0.922167 0.000869361 0.289235
B 0.200619 0.363973 0.962463
B 0.54776 0.546656 0.136543
B 0.358525 0.989487 0.853194
B 0.923879 0.176468 0.448582
B 0.421583 0.413414 0.448581
B 0.347803 0.0523499 0.963776
B 0.969535 0.672802 0.856222
B 0.42767 0.303433 0.653397
B 0.325577 0.704914 0.0633791
B 0.849745 0.102804 0.749602
B 0.486806 0.435188 0.775354
B 0.241453 0.888654 0.629728
B 0.977439 0.191068 0.00290541
B 0.13854 0.266175 0.935931
B 0.590035 0.852771 0.221057
B 0.384976 0.942905 0.205825
B 0.00333515 0.434855 0.872718
B 0.29153 0.402943 0.478418
B 0.944216 0.516123 0.712151
B 0.535455 0.65327 0.579137
B 0.474361 0.758549 0.839448
B 0.53823 0.366784 0.503299
B 0.995047 0.0853131 0.495166
